/*--------------------------------*- C++ -*----------------------------------*\
| =========                 |                                                 |
| \\      /  F ield         | OpenFOAM: The Open Source CFD Toolbox           |
|  \\    /   O peration     | Version:  5.x                                   |
|   \\  /    A nd           | Web:      www.OpenFOAM.org                      |
|    \\/     M anipulation  |                                                 |
\*---------------------------------------------------------------------------*/
FoamFile
{
    version     2.0;
    format      binary;
    class       polyBoundaryMesh;
    location    "constant/polyMesh";
    object      boundary;
}
// * * * * * * * * * * * * * * * * * * * * * * * * * * * * * * * * * * * * * //

7
(
    front
    {
        type            empty;
        physicalType    patch;
        nFaces          44984;
        startFace       67226;
    }
    back
    {
        type            empty;
        physicalType    patch;
        nFaces          44984;
        startFace       112210;
    }
    exit
    {
        type            patch;
        physicalType    patch;
        nFaces          63;
        startFace       157194;
    }
    bottom
    {
        type            patch;
        physicalType    patch;
        nFaces          63;
        startFace       157257;
    }
    inlet
    {
        type            patch;
        physicalType    patch;
        nFaces          63;
        startFace       157320;
    }
    top
    {
        type            patch;
        physicalType    patch;
        nFaces          63;
        startFace       157383;
    }
    aerofoil
    {
        type            wall;
        physicalType    patch;
        nFaces          248;
        startFace       157446;
    }
)

// ************************************************************************* //
